Version,
    1.705548;      !- Version Identifier

SimulationControl,
    1.533424,      !- Do Zone Sizing Calculation
    1.579519,      !- Do System Sizing Calculation
    1.289562,      !- Do Plant Sizing Calculation
    1.301948,      !- Run Simulation for Sizing Periods
    1.77474,       !- Run Simulation for Weather File Run Periods
    1.014018,      !- Do HVAC Sizing Simulation for Sizing Periods
    1.760724;      !- Maximum Number of HVAC Sizing Simulation Passes

Building,
    1.81449,       !- Name
    1.709038,      !- North Axis {deg}
    1.045353,      !- Terrain
    1.414033,      !- Loads Convergence Tolerance Value
    1.862619,      !- Temperature Convergence Tolerance Value {deltaC}
    1.79048,       !- Solar Distribution
    1.373536,      !- Maximum Number of Warmup Days
    1.961953;      !- Minimum Number of Warmup Days

ShadowCalculation,
    1.871446,      !- Calculation Method
    1.056237,      !- Calculation Frequency
    1.949557,      !- Maximum Figures in Shadow Overlap Calculations
    1.364019,      !- Polygon Clipping Algorithm
    1.524868,      !- Sky Diffuse Modeling Algorithm
    1.767112,      !- External Shading Calculation Method
    1.053504,      !- Output External Shading Calculation Results
    1.592458,      !- Disable Self-Shading Within Shading Zone Groups
    1.4687,        !- Disable Self-Shading From Shading Zone Groups to Other Zones
    1.298165,      !- Shading Zone Group 1 ZoneList Name
    1.622697,      !- Shading Zone Group 2 ZoneList Name
    1.647821,      !- Shading Zone Group 3 ZoneList Name
    1.263793,      !- Shading Zone Group 4 ZoneList Name
    1.279342,      !- Shading Zone Group 5 ZoneList Name
    1.829802;      !- Shading Zone Group 6 ZoneList Name

SurfaceConvectionAlgorithm:Inside,
    1.824602;      !- Algorithm

SurfaceConvectionAlgorithm:Outside,
    1.589163;      !- Algorithm

HeatBalanceAlgorithm,
    1.986093,      !- Algorithm
    1.910964,      !- Surface Temperature Upper Limit {C}
    1.226866,      !- Minimum Surface Convection Heat Transfer Coefficient Value {W/m2-K}
    1.695116;      !- Maximum Surface Convection Heat Transfer Coefficient Value {W/m2-K}

HeatBalanceSettings:ConductionFiniteDifference,
    1.980003,      !- Difference Scheme
    1.243931,      !- Space Discretization Constant
    1.533873,      !- Relaxation Factor
    1.10637;       !- Inside Face Surface Temperature Convergence Criteria

ZoneAirHeatBalanceAlgorithm,
    1.999415;      !- Algorithm

ZoneAirContaminantBalance,
    1.676176,      !- Carbon Dioxide Concentration
    1.015704,      !- Outdoor Carbon Dioxide Schedule Name
    1.575184,      !- Generic Contaminant Concentration
    1.100052;      !- Outdoor Generic Contaminant Schedule Name

ZoneAirMassFlowConservation,
    1.103023,      !- Adjust Zone Mixing For Zone Air Mass Flow Balance
    1.798884,      !- Infiltration Balancing Method
    1.28448;       !- Infiltration Balancing Zones

ZoneCapacitanceMultiplier:ResearchSpecial,
    1.045649,      !- Name
    1.295773,      !- Zone or ZoneList Name
    1.382011,      !- Temperature Capacity Multiplier
    1.300971,      !- Humidity Capacity Multiplier
    1.948571,      !- Carbon Dioxide Capacity Multiplier
    1.979829;      !- Generic Contaminant Capacity Multiplier

Timestep,
    1.401374;      !- Number of Timesteps per Hour

ConvergenceLimits,
    1.27828,       !- Minimum System Timestep {minutes}
    1.160442,      !- Maximum HVAC Iterations
    1.162822,      !- Minimum Plant Iterations
    1.646587;      !- Maximum Plant Iterations

HVACSystemRootFindingAlgorithm,
    1.410073,      !- Algorithm
    1.412767;      !- Number of Iterations Before Algorithm Switch

Compliance:Building,
    1.71273;       !- Building Rotation for Appendix G {deg}

Site:Location,
    1.326206,      !- Name
    1.633179,      !- Latitude {deg}
    1.207561,      !- Longitude {deg}
    1.186013,      !- Time Zone {hr}
    1.583359;      !- Elevation {m}

Site:VariableLocation,
    1.080715,      !- Name
    1.457971,      !- Building Location Latitude Schedule
    1.90573,       !- Building Location Longitude Schedule
    1.261368;      !- Building Location Orientation Schedule

SizingPeriod:DesignDay,
    1.785212,      !- Name
    1.378903,      !- Month
    1.289665,      !- Day of Month
    1.919377,      !- Day Type
    1.631742,      !- Maximum Dry-Bulb Temperature {C}
    1.627642,      !- Daily Dry-Bulb Temperature Range {deltaC}
    1.428456,      !- Dry-Bulb Temperature Range Modifier Type
    1.097974,      !- Dry-Bulb Temperature Range Modifier Day Schedule Name
    1.56104,       !- Humidity Condition Type
    1.694485,      !- Wetbulb or DewPoint at Maximum Dry-Bulb {C}
    1.913718,      !- Humidity Condition Day Schedule Name
    1.834817,      !- Humidity Ratio at Maximum Dry-Bulb {kgWater/kgDryAir}
    1.022629,      !- Enthalpy at Maximum Dry-Bulb {J/kg}
    1.543361,      !- Daily Wet-Bulb Temperature Range {deltaC}
    1.916164,      !- Barometric Pressure {Pa}
    1.430261,      !- Wind Speed {m/s}
    1.677948,      !- Wind Direction {deg}
    1.502454,      !- Rain Indicator
    1.513737,      !- Snow Indicator
    1.46298,       !- Daylight Saving Time Indicator
    1.353473,      !- Solar Model Indicator
    1.404834,      !- Beam Solar Day Schedule Name
    1.269732,      !- Diffuse Solar Day Schedule Name
    1.055593,      !- ASHRAE Clear Sky Optical Depth for Beam Irradiance (taub) {dimensionless}
    1.243845,      !- ASHRAE Clear Sky Optical Depth for Diffuse Irradiance (taud) {dimensionless}
    1.979078;      !- Sky Clearness

SizingPeriod:WeatherFileDays,
    1.060916,      !- Name
    1.390291,      !- Begin Month
    1.364995,      !- Begin Day of Month
    1.489895,      !- End Month
    1.155663,      !- End Day of Month
    1.474459,      !- Day of Week for Start Day
    1.257268,      !- Use Weather File Daylight Saving Period
    1.628752;      !- Use Weather File Rain and Snow Indicators

SizingPeriod:WeatherFileConditionType,
    1.54207,       !- Name
    1.156302,      !- Period Selection
    1.938545,      !- Day of Week for Start Day
    1.654499,      !- Use Weather File Daylight Saving Period
    1.506087;      !- Use Weather File Rain and Snow Indicators

RunPeriod,
    1.390471,      !- Name
    1.107375,      !- Begin Month
    1.783995,      !- Begin Day of Month
    1.459641,      !- Begin Year
    1.753688,      !- End Month
    1.596095,      !- End Day of Month
    1.83273,       !- End Year
    1.018758,      !- Day of Week for Start Day
    1.210369,      !- Use Weather File Holidays and Special Days
    1.073953,      !- Use Weather File Daylight Saving Period
    1.105453,      !- Apply Weekend Holiday Rule
    1.331694,      !- Use Weather File Rain Indicators
    1.12825,       !- Use Weather File Snow Indicators
    1.000241;      !- Treat Weather as Actual

RunPeriodControl:SpecialDays,
    1.536794,      !- Name
    1.657055,      !- Start Date
    1.544014,      !- Duration {days}
    1.827412;      !- Special Day Type

RunPeriodControl:DaylightSavingTime,
    1.081894,      !- Start Date
    1.191922;      !- End Date

WeatherProperty:SkyTemperature,
    1.678913,      !- Name
    1.454208,      !- Calculation Type
    1.357023;      !- Schedule Name

Site:WeatherStation,
    1.149981,      !- Wind Sensor Height Above Ground {m}
    1.704396,      !- Wind Speed Profile Exponent
    1.928786,      !- Wind Speed Profile Boundary Layer Thickness {m}
    1.530213;      !- Air Temperature Sensor Height Above Ground {m}

Site:HeightVariation,
    1.089641,      !- Wind Speed Profile Exponent
    1.757729,      !- Wind Speed Profile Boundary Layer Thickness {m}
    1.401842;      !- Air Temperature Gradient Coefficient {K/m}

Site:GroundTemperature:BuildingSurface,
    1.461874,      !- January Ground Temperature {C}
    1.492166,      !- February Ground Temperature {C}
    1.207627,      !- March Ground Temperature {C}
    1.329736,      !- April Ground Temperature {C}
    1.095429,      !- May Ground Temperature {C}
    1.589792,      !- June Ground Temperature {C}
    1.169873,      !- July Ground Temperature {C}
    1.927617,      !- August Ground Temperature {C}
    1.09793,       !- September Ground Temperature {C}
    1.443862,      !- October Ground Temperature {C}
    1.272947,      !- November Ground Temperature {C}
    1.872547;      !- December Ground Temperature {C}

Site:GroundTemperature:FCfactorMethod,
    1.750688,      !- January Ground Temperature {C}
    1.272942,      !- February Ground Temperature {C}
    1.673647,      !- March Ground Temperature {C}
    1.256629,      !- April Ground Temperature {C}
    1.089897,      !- May Ground Temperature {C}
    1.030951,      !- June Ground Temperature {C}
    1.322718,      !- July Ground Temperature {C}
    1.790129,      !- August Ground Temperature {C}
    1.297258,      !- September Ground Temperature {C}
    1.235282,      !- October Ground Temperature {C}
    1.480475,      !- November Ground Temperature {C}
    1.254602;      !- December Ground Temperature {C}

Site:GroundTemperature:Shallow,
    1.340607,      !- January Surface Ground Temperature {C}
    1.044934,      !- February Surface Ground Temperature {C}
    1.482428,      !- March Surface Ground Temperature {C}
    1.206017,      !- April Surface Ground Temperature {C}
    1.864534,      !- May Surface Ground Temperature {C}
    1.588629,      !- June Surface Ground Temperature {C}
    1.754908,      !- July Surface Ground Temperature {C}
    1.927883,      !- August Surface Ground Temperature {C}
    1.331017,      !- September Surface Ground Temperature {C}
    1.542941,      !- October Surface Ground Temperature {C}
    1.080691,      !- November Surface Ground Temperature {C}
    1.634372;      !- December Surface Ground Temperature {C}

Site:GroundTemperature:Deep,
    1.410037,      !- January Deep Ground Temperature {C}
    1.960423,      !- February Deep Ground Temperature {C}
    1.114623,      !- March Deep Ground Temperature {C}
    1.923445,      !- April Deep Ground Temperature {C}
    1.62021,       !- May Deep Ground Temperature {C}
    1.347726,      !- June Deep Ground Temperature {C}
    1.149246,      !- July Deep Ground Temperature {C}
    1.479978,      !- August Deep Ground Temperature {C}
    1.219409,      !- September Deep Ground Temperature {C}
    1.993731,      !- October Deep Ground Temperature {C}
    1.13042,       !- November Deep Ground Temperature {C}
    1.028886;      !- December Deep Ground Temperature {C}

Site:GroundTemperature:Undisturbed:FiniteDifference,
    1.345392,      !- Name
    1.547668,      !- Soil Thermal Conductivity {W/m-K}
    1.922955,      !- Soil Density {kg/m3}
    1.538246,      !- Soil Specific Heat {J/kg-K}
    1.406421,      !- Soil Moisture Content Volume Fraction {percent}
    1.847245,      !- Soil Moisture Content Volume Fraction at Saturation {percent}
    1.826226;      !- Evapotranspiration Ground Cover Parameter {dimensionless}

Site:GroundTemperature:Undisturbed:KusudaAchenbach,
    1.672428,      !- Name
    1.721895,      !- Soil Thermal Conductivity {W/m-K}
    1.996771,      !- Soil Density {kg/m3}
    1.339806,      !- Soil Specific Heat {J/kg-K}
    1.495211,      !- Average Soil Surface Temperature {C}
    1.412968,      !- Average Amplitude of Surface Temperature {deltaC}
    1.695282;      !- Phase Shift of Minimum Surface Temperature {days}

Site:GroundTemperature:Undisturbed:Xing,
    1.179089,      !- Name
    1.422918,      !- Soil Thermal Conductivity {W/m-K}
    1.543177,      !- Soil Density {kg/m3}
    1.814664,      !- Soil Specific Heat {J/kg-K}
    1.540914,      !- Average Soil Surface Tempeature {C}
    1.427533,      !- Soil Surface Temperature Amplitude 1 {deltaC}
    1.509068,      !- Soil Surface Temperature Amplitude 2 {deltaC}
    1.227782,      !- Phase Shift of Temperature Amplitude 1 {days}
    1.619188;      !- Phase Shift of Temperature Amplitude 2 {days}

Site:GroundDomain:Slab,
    1.48983,       !- Name
    1.680819,      !- Ground Domain Depth {m}
    1.8866,        !- Aspect Ratio
    1.370515,      !- Perimeter Offset {m}
    1.302498,      !- Soil Thermal Conductivity {W/m-K}
    1.292867,      !- Soil Density {kg/m3}
    1.150311,      !- Soil Specific Heat {J/kg-K}
    1.529821,      !- Soil Moisture Content Volume Fraction {percent}
    1.223262,      !- Soil Moisture Content Volume Fraction at Saturation {percent}
    1.584529,      !- Undisturbed Ground Temperature Model Type
    1.363459,      !- Undisturbed Ground Temperature Model Name
    1.875975,      !- Evapotranspiration Ground Cover Parameter
    1.478014,      !- Slab Boundary Condition Model Name
    1.190633,      !- Slab Location
    1.684062,      !- Slab Material Name
    1.747416,      !- Horizontal Insulation
    1.613935,      !- Horizontal Insulation Material Name
    1.782139,      !- Horizontal Insulation Extents
    1.161744,      !- Perimeter Insulation Width {m}
    1.80778,       !- Vertical Insulation
    1.202618,      !- Vertical Insulation Material Name
    1.956762,      !- Vertical Insulation Depth {m}
    1.065851,      !- Simulation Timestep
    1.061522,      !- Geometric Mesh Coefficient
    1.793198;      !- Mesh Density Parameter

Site:GroundDomain:Basement,
    1.379605,      !- Name
    1.463584,      !- Ground Domain Depth {m}
    1.119544,      !- Aspect Ratio
    1.11547,       !- Perimeter Offset {m}
    1.173773,      !- Soil Thermal Conductivity {W/m-K}
    1.048119,      !- Soil Density {kg/m3}
    1.714816,      !- Soil Specific Heat {J/kg-K}
    1.533022,      !- Soil Moisture Content Volume Fraction {percent}
    1.561009,      !- Soil Moisture Content Volume Fraction at Saturation {percent}
    1.216733,      !- Undisturbed Ground Temperature Model Type
    1.468006,      !- Undisturbed Ground Temperature Model Name
    1.746355,      !- Evapotranspiration Ground Cover Parameter
    1.752311,      !- Basement Floor Boundary Condition Model Name
    1.398932,      !- Horizontal Insulation
    1.903099,      !- Horizontal Insulation Material Name
    1.746007,      !- Horizontal Insulation Extents
    1.08856,       !- Perimeter Horizontal Insulation Width {m}
    1.634571,      !- Basement Wall Depth {m}
    1.713028,      !- Basement Wall Boundary Condition Model Name
    1.015682,      !- Vertical Insulation
    1.431144,      !- Basement Wall Vertical Insulation Material Name
    1.401983,      !- Vertical Insulation Depth {m}
    1.275295,      !- Simulation Timestep
    1.985374;      !- Mesh Density Parameter

Site:GroundReflectance,
    1.802587,      !- January Ground Reflectance {dimensionless}
    1.696101,      !- February Ground Reflectance {dimensionless}
    1.417599,      !- March Ground Reflectance {dimensionless}
    1.734488,      !- April Ground Reflectance {dimensionless}
    1.277168,      !- May Ground Reflectance {dimensionless}
    1.356586,      !- June Ground Reflectance {dimensionless}
    1.433457,      !- July Ground Reflectance {dimensionless}
    1.944971,      !- August Ground Reflectance {dimensionless}
    1.12155,       !- September Ground Reflectance {dimensionless}
    1.645951,      !- October Ground Reflectance {dimensionless}
    1.347833,      !- November Ground Reflectance {dimensionless}
    1.104432;      !- December Ground Reflectance {dimensionless}

Site:GroundReflectance:SnowModifier,
    1.185403,      !- Ground Reflected Solar Modifier
    1.077685;      !- Daylighting Ground Reflected Solar Modifier

Site:WaterMainsTemperature,
    1.43276,       !- Calculation Method
    1.959271,      !- Temperature Schedule Name
    1.542029,      !- Annual Average Outdoor Air Temperature {C}
    1.494377;      !- Maximum Difference In Monthly Average Outdoor Air Temperatures {deltaC}

Site:Precipitation,
    1.972967,      !- Precipitation Model Type
    1.2178,        !- Design Level for Total Annual Precipitation {m/yr}
    1.378991,      !- Precipitation Rates Schedule Name
    1.395844;      !- Average Total Annual Precipitation {m/yr}

RoofIrrigation,
    1.281503,      !- Irrigation Model Type
    1.503371,      !- Irrigation Rate Schedule Name
    1.138732;      !- Irrigation Maximum Saturation Threshold {percent}

Site:SolarAndVisibleSpectrum,
    1.517256,      !- Name
    1.965364,      !- Spectrum Data Method
    1.557501,      !- Solar Spectrum Data Object Name
    1.909204;      !- Visible Spectrum Data Object Name

Site:SpectrumData,
    1.657256,      !- Name
    1.441115,      !- Spectrum Data Type
    1.692995,      !- Wavelength {micron}
    1.064491,      !- Spectrum
    1.756093,      !- Wavelength {micron}
    1.700514,      !- Spectrum
    1.497071,      !- Wavelength {micron}
    1.155436,      !- Spectrum
    1.223737,      !- N7
    1.326144,      !- N8
    1.784489,      !- N9
    1.050263,      !- N10
    1.518016,      !- N11
    1.75703,       !- N12
    1.80067,       !- N13
    1.325205,      !- N14
    1.972729,      !- N15
    1.804267,      !- N16
    1.674826,      !- N17
    1.905129,      !- N18
    1.87578,       !- N19
    1.416648,      !- N20
    1.123083,      !- N21
    1.954158,      !- N22
    1.797297,      !- N23
    1.696285,      !- N24
    1.401605,      !- N25
    1.016298,      !- N26
    1.167763,      !- N27
    1.164234,      !- N28
    1.50972,       !- N29
    1.406063,      !- N30
    1.106134,      !- N31
    1.276123,      !- N32
    1.643047,      !- N33
    1.8491,        !- N34
    1.497969,      !- N35
    1.187775,      !- N36
    1.896617,      !- N37
    1.372814,      !- N38
    1.323555,      !- N39
    1.770833,      !- N40
    1.218,         !- N41
    1.446993,      !- N42
    1.236028,      !- N43
    1.878385,      !- N44
    1.610433,      !- N45
    1.374432,      !- N46
    1.389502,      !- N47
    1.860589,      !- N48
    1.585938,      !- N49
    1.931559,      !- N50
    1.517192,      !- N51
    1.330301,      !- N52
    1.868454,      !- N53
    1.259061,      !- N54
    1.259541,      !- N55
    1.178694,      !- N56
    1.346957,      !- N57
    1.002506,      !- N58
    1.742342,      !- N59
    1.840887,      !- N60
    1.278589,      !- N61
    1.70297,       !- N62
    1.404865,      !- N63
    1.811571,      !- N64
    1.741781,      !- N65
    1.437664,      !- N66
    1.077981,      !- N67
    1.410632,      !- N68
    1.339375,      !- N69
    1.710554,      !- N70
    1.312288,      !- N71
    1.798774,      !- N72
    1.151756,      !- N73
    1.592991,      !- N74
    1.956237,      !- N75
    1.243148,      !- N76
    1.939971,      !- N77
    1.114333,      !- N78
    1.984253,      !- N79
    1.632976,      !- N80
    1.598856,      !- N81
    1.90257,       !- N82
    1.574865,      !- N83
    1.245174,      !- N84
    1.860162,      !- N85
    1.07495,       !- N86
    1.438826,      !- N87
    1.759979,      !- N88
    1.245679,      !- N89
    1.378606,      !- N90
    1.397243,      !- N91
    1.526573,      !- N92
    1.270359,      !- N93
    1.581176,      !- N94
    1.209699,      !- N95
    1.078709,      !- N96
    1.895446,      !- N97
    1.111433,      !- N98
    1.652377,      !- N99
    1.900334,      !- N100
    1.231597,      !- N101
    1.949906,      !- N102
    1.846187,      !- N103
    1.441216,      !- N104
    1.492006,      !- N105
    1.769507,      !- N106
    1.834893,      !- N107
    1.382569,      !- N108
    1.195535,      !- N109
    1.326157,      !- N110
    1.413233,      !- N111
    1.152677,      !- N112
    1.619832,      !- N113
    1.09941,       !- N114
    1.205047,      !- N115
    1.692518,      !- N116
    1.504459,      !- N117
    1.183076,      !- N118
    1.991402,      !- N119
    1.471391,      !- N120
    1.00402,       !- N121
    1.425849,      !- N122
    1.288717,      !- N123
    1.752542,      !- N124
    1.891279,      !- N125
    1.821931,      !- N126
    1.176887,      !- N127
    1.108786,      !- N128
    1.010293,      !- N129
    1.151657,      !- N130
    1.377408,      !- N131
    1.188132,      !- N132
    1.979531,      !- N133
    1.872118,      !- N134
    1.581503,      !- N135
    1.729411,      !- N136
    1.145,         !- N137
    1.25779,       !- N138
    1.028247,      !- N139
    1.827899,      !- N140
    1.783374,      !- N141
    1.791155,      !- N142
    1.332691,      !- N143
    1.450942,      !- N144
    1.555113,      !- N145
    1.80333,       !- N146
    1.563989,      !- N147
    1.203582,      !- N148
    1.207594,      !- N149
    1.364688,      !- N150
    1.573519,      !- N151
    1.344181,      !- N152
    1.52823,       !- N153
    1.425485,      !- N154
    1.573013,      !- N155
    1.050045,      !- N156
    1.5476,        !- N157
    1.206485,      !- N158
    1.962678,      !- N159
    1.933052,      !- N160
    1.992572,      !- N161
    1.839586,      !- N162
    1.409323,      !- N163
    1.805275,      !- N164
    1.989428,      !- N165
    1.258442,      !- N166
    1.174484,      !- N167
    1.694607,      !- N168
    1.016989,      !- N169
    1.339091,      !- N170
    1.692548,      !- N171
    1.110387,      !- N172
    1.109739,      !- N173
    1.290578,      !- N174
    1.398878,      !- N175
    1.559022,      !- N176
    1.310952,      !- N177
    1.295581,      !- N178
    1.807941,      !- N179
    1.309618,      !- N180
    1.375816,      !- N181
    1.401036,      !- N182
    1.841428,      !- N183
    1.409597,      !- N184
    1.724559,      !- N185
    1.658763,      !- N186
    1.406382,      !- N187
    1.950331,      !- N188
    1.645571,      !- N189
    1.516088,      !- N190
    1.223323,      !- N191
    1.582758,      !- N192
    1.748533,      !- N193
    1.45647,       !- N194
    1.904374,      !- N195
    1.283015,      !- N196
    1.667538,      !- N197
    1.890127,      !- N198
    1.281381,      !- N199
    1.368056,      !- N200
    1.014221,      !- N201
    1.294659,      !- N202
    1.984046,      !- N203
    1.761283,      !- N204
    1.580878,      !- N205
    1.605673,      !- N206
    1.268044,      !- N207
    1.508167,      !- N208
    1.793597,      !- N209
    1.857411,      !- N210
    1.093153,      !- N211
    1.541873,      !- N212
    1.415376,      !- N213
    1.073371;      !- N214

ScheduleTypeLimits,
    1.451377,      !- Name
    1.69889,       !- Lower Limit Value
    1.499257,      !- Upper Limit Value
    1.406934,      !- Numeric Type
    1.945072;      !- Unit Type

Schedule:Day:Hourly,
    1.98465,       !- Name
    1.591442,      !- Schedule Type Limits Name
    1.53199,       !- Hour 1
    1.615072,      !- Hour 2
    1.089154,      !- Hour 3
    1.184425,      !- Hour 4
    1.28356,       !- Hour 5
    1.018809,      !- Hour 6
    1.1526,        !- Hour 7
    1.420111,      !- Hour 8
    1.548424,      !- Hour 9
    1.558445,      !- Hour 10
    1.781007,      !- Hour 11
    1.042948,      !- Hour 12
    1.405745,      !- Hour 13
    1.058991,      !- Hour 14
    1.311837,      !- Hour 15
    1.603044,      !- Hour 16
    1.517693,      !- Hour 17
    1.596438,      !- Hour 18
    1.329625,      !- Hour 19
    1.909298,      !- Hour 20
    1.770072,      !- Hour 21
    1.575874,      !- Hour 22
    1.4316,        !- Hour 23
    1.732525;      !- Hour 24

Schedule:Day:Interval,
    1.162942,      !- Name
    1.059617,      !- Schedule Type Limits Name
    1.243311,      !- Interpolate to Timestep
    1.758574,      !- Time 1 {hh:mm}
    1.951248,      !- Value Until Time 1
    1.345335,      !- Time 2 {hh:mm}
    1.684252,      !- Value Until Time 2
    1.791464,      !- Time 3 {hh:mm}
    1.03544,       !- Value Until Time 3
    1.794173,      !- Time 4 {hh:mm}
    1.483488,      !- Value Until Time 4
    1.206499,      !- Time 5 {hh:mm}
    1.602104,      !- Value Until Time 5
    1.908879,      !- Time 6 {hh:mm}
    1.945281,      !- Value Until Time 6
    1.653397,      !- Time 7 {hh:mm}
    1.014582,      !- Value Until Time 7
    1.661924,      !- Time 8 {hh:mm}
    1.964709,      !- Value Until Time 8
    1.009418,      !- Time 9 {hh:mm}
    1.953598,      !- Value Until Time 9
    1.073634,      !- Time 10 {hh:mm}
    1.2933,        !- Value Until Time 10
    1.582484,      !- Time 11 {hh:mm}
    1.807887,      !- Value Until Time 11
    1.04031,       !- Time 12 {hh:mm}
    1.054649,      !- Value Until Time 12
    1.564307,      !- Time 13 {hh:mm}
    1.314813,      !- Value Until Time 13
    1.412355,      !- Time 14 {hh:mm}
    1.510047,      !- Value Until Time 14
    1.733511,      !- Time 15 {hh:mm}
    1.450999,      !- Value Until Time 15
    1.322398,      !- Time 16 {hh:mm}
    1.074108,      !- Value Until Time 16
    1.408761,      !- Time 17 {hh:mm}
    1.572954,      !- Value Until Time 17
    1.76342,       !- Time 18 {hh:mm}
    1.580387,      !- Value Until Time 18
    1.651886,      !- Time 19 {hh:mm}
    1.807689,      !- Value Until Time 19
    1.416879,      !- Time 20 {hh:mm}
    1.797013,      !- Value Until Time 20
    1.721004,      !- Time 21 {hh:mm}
    1.693354,      !- Value Until Time 21
    1.730834,      !- Time 22 {hh:mm}
    1.192307,      !- Value Until Time 22
    1.773646,      !- Time 23 {hh:mm}
    1.069851,      !- Value Until Time 23
    1.24807,       !- Time 24 {hh:mm}
    1.950413,      !- Value Until Time 24
    1.819883,      !- Time 25 {hh:mm}
    1.219469,      !- Value Until Time 25
    1.184224,      !- Time 26 {hh:mm}
    1.23692,       !- Value Until Time 26
    1.925451,      !- Time 27 {hh:mm}
    1.257504,      !- Value Until Time 27
    1.255911,      !- Time 28 {hh:mm}
    1.714486,      !- Value Until Time 28
    1.664872,      !- Time 29 {hh:mm}
    1.772883,      !- Value Until Time 29
    1.758846,      !- Time 30 {hh:mm}
    1.308465,      !- Value Until Time 30
    1.824585,      !- Time 31 {hh:mm}
    1.718793,      !- Value Until Time 31
    1.89597,       !- Time 32 {hh:mm}
    1.222532,      !- Value Until Time 32
    1.356067,      !- Time 33 {hh:mm}
    1.553302,      !- Value Until Time 33
    1.355577,      !- Time 34 {hh:mm}
    1.204306,      !- Value Until Time 34
    1.578959,      !- Time 35 {hh:mm}
    1.629987,      !- Value Until Time 35
    1.139438,      !- Time 36 {hh:mm}
    1.060976,      !- Value Until Time 36
    1.634191,      !- Time 37 {hh:mm}
    1.838558,      !- Value Until Time 37
    1.640923,      !- Time 38 {hh:mm}
    1.424929,      !- Value Until Time 38
    1.187108,      !- Time 39 {hh:mm}
    1.495482,      !- Value Until Time 39
    1.973131,      !- Time 40 {hh:mm}
    1.76937,       !- Value Until Time 40
    1.380592,      !- Time 41 {hh:mm}
    1.484608,      !- Value Until Time 41
    1.547011,      !- Time 42 {hh:mm}
    1.673949,      !- Value Until Time 42
    1.038192,      !- Time 43 {hh:mm}
    1.647795,      !- Value Until Time 43
    1.899491,      !- Time 44 {hh:mm}
    1.340389,      !- Value Until Time 44
    1.117243,      !- Time 45 {hh:mm}
    1.425534,      !- Value Until Time 45
    1.771596,      !- Time 46 {hh:mm}
    1.358104,      !- Value Until Time 46
    1.411997,      !- Time 47 {hh:mm}
    1.747573,      !- Value Until Time 47
    1.436583,      !- Time 48 {hh:mm}
    1.719833,      !- Value Until Time 48
    1.506742,      !- Time 49 {hh:mm}
    1.173543,      !- Value Until Time 49
    1.278057,      !- Time 50 {hh:mm}
    1.087257,      !- Value Until Time 50
    1.978932,      !- Time 51 {hh:mm}
    1.283584,      !- Value Until Time 51
    1.6181,        !- Time 52 {hh:mm}
    1.306629,      !- Value Until Time 52
    1.85231,       !- Time 53 {hh:mm}
    1.318968,      !- Value Until Time 53
    1.795397,      !- Time 54 {hh:mm}
    1.174397,      !- Value Until Time 54
    1.300032,      !- Time 55 {hh:mm}
    1.072724,      !- Value Until Time 55
    1.493358,      !- Time 56 {hh:mm}
    1.452828,      !- Value Until Time 56
    1.597795,      !- Time 57 {hh:mm}
    1.030264,      !- Value Until Time 57
    1.318246,      !- Time 58 {hh:mm}
    1.135636,      !- Value Until Time 58
    1.326959,      !- Time 59 {hh:mm}
    1.76001,       !- Value Until Time 59
    1.627299,      !- Time 60 {hh:mm}
    1.963605,      !- Value Until Time 60
    1.827672,      !- Time 61 {hh:mm}
    1.554015,      !- Value Until Time 61
    1.606857,      !- Time 62 {hh:mm}
    1.190214,      !- Value Until Time 62
    1.901996,      !- Time 63 {hh:mm}
    1.318589,      !- Value Until Time 63
    1.600487,      !- Time 64 {hh:mm}
    1.597261,      !- Value Until Time 64
    1.767035,      !- Time 65 {hh:mm}
    1.714927,      !- Value Until Time 65
    1.687109,      !- Time 66 {hh:mm}
    1.760492,      !- Value Until Time 66
    1.258055,      !- Time 67 {hh:mm}
    1.54973,       !- Value Until Time 67
    1.509116,      !- Time 68 {hh:mm}
    1.565222,      !- Value Until Time 68
    1.28161,       !- Time 69 {hh:mm}
    1.415832,      !- Value Until Time 69
    1.350506,      !- Time 70 {hh:mm}
    1.971961,      !- Value Until Time 70
    1.51867,       !- Time 71 {hh:mm}
    1.582827,      !- Value Until Time 71
    1.465002,      !- Time 72 {hh:mm}
    1.032038,      !- Value Until Time 72
    1.377743,      !- Time 73 {hh:mm}
    1.137688,      !- Value Until Time 73
    1.654178,      !- Time 74 {hh:mm}
    1.153232,      !- Value Until Time 74
    1.198001,      !- Time 75 {hh:mm}
    1.375399,      !- Value Until Time 75
    1.095585,      !- Time 76 {hh:mm}
    1.615386,      !- Value Until Time 76
    1.702406,      !- Time 77 {hh:mm}
    1.439576,      !- Value Until Time 77
    1.420877,      !- Time 78 {hh:mm}
    1.336044,      !- Value Until Time 78
    1.700834,      !- Time 79 {hh:mm}
    1.213092,      !- Value Until Time 79
    1.043933,      !- Time 80 {hh:mm}
    1.886066,      !- Value Until Time 80
    1.043199,      !- Time 81 {hh:mm}
    1.458703,      !- Value Until Time 81